Circuit: * D:\Users\gizmo\Documents\Develop\SVF_AD8403\LTSpice\AD8403_SVF.asc

Direct Newton iteration for .op point succeeded.
.step rq=1000
.step rq=5000
.step rq=9000

Date: Sat Apr 22 13:16:32 2017
Total elapsed time: 0.027 seconds.

tnom = 27
temp = 27
method = trap
totiter = 3
traniter = 0
tranpoints = 0
accept = 0
rejected = 0
matrix size = 18
fillins = 30
solver = Normal
Matrix Compiler1:     146 opcodes
Matrix Compiler2: 2.50 KB object code size

