Circuit: * D:\Users\gizmo\Desktop\SVF_AD8403\LTSpice\AD8403_SVF.asc

Direct Newton iteration for .op point succeeded.

Date: Wed Apr 19 22:17:35 2017
Total elapsed time: 0.031 seconds.

tnom = 27
temp = 27
method = trap
totiter = 3
traniter = 0
tranpoints = 0
accept = 0
rejected = 0
matrix size = 18
fillins = 30
solver = Normal
Matrix Compiler1:     146 opcodes
Matrix Compiler2: 2.50 KB object code size

