Circuit: * D:\Users\gizmo\Documents\Develop\SVF_AD8403\LTSpice\SVF_sim_AC_Coupling_SQR.asc

Direct Newton iteration for .op point succeeded.

Date: Sat Apr 22 22:27:39 2017
Total elapsed time: 0.076 seconds.

tnom = 27
temp = 27
method = modified trap
totiter = 9074
traniter = 9071
tranpoints = 4463
accept = 3139
rejected = 1324
matrix size = 17
fillins = 24
solver = Normal
Matrix Compiler1: 2.00 KB object code size  0.5/0.2/[0.1]
Matrix Compiler2: 2.20 KB object code size  0.3/0.3/[0.1]


