Circuit: * D:\Users\gizmo\Documents\Develop\SVF_AD8403\LTSpice\SVF_sim.asc

Direct Newton iteration for .op point succeeded.
.step rq=2000
.step rq=50000
.step rq=100000

Date: Sat Apr 22 19:49:35 2017
Total elapsed time: 0.041 seconds.

tnom = 27
temp = 27
method = trap
totiter = 3
traniter = 0
tranpoints = 0
accept = 0
rejected = 0
matrix size = 16
fillins = 22
solver = Normal
Matrix Compiler1:     113 opcodes
Matrix Compiler2: 2.09 KB object code size

