Circuit: * D:\Users\gizmo\Documents\Develop\SVF_AD8403\LTSpice\SVF_sim_AC_Coupling_Level.asc

Direct Newton iteration for .op point succeeded.
.step rq=2000
.step rq=50000
.step rq=100000

Date: Tue Apr 25 19:27:23 2017
Total elapsed time: 0.093 seconds.

tnom = 27
temp = 27
method = trap
totiter = 3
traniter = 0
tranpoints = 0
accept = 0
rejected = 0
matrix size = 20
fillins = 25
solver = Normal
Matrix Compiler1:     132 opcodes
Matrix Compiler2: 2.62 KB object code size

